MatpowerDataProcesssed/d_case24_ieee_rts.m
% 02/07/11 File data originated from Matpower data file
%

Bus.con = [ ...
    1      138        1        0    1    1;
    2      138        1        0    1    1;
    3      138        1        0    1    1;
    4      138        1        0    1    1;
    5      138        1        0    1    1;
    6      138        1        0    2    1;
    7      138        1        0    2    1;
    8      138        1        0    2    1;
    9      138        1        0    1    1;
    10      138        1        0    2    1;
    11      230        1        0    3    1;
    12      230        1        0    3    1;
    13      230        1        0    3    1;
    14      230        1        0    3    1;
    15      230        1        0    4    1;
    16      230        1        0    4    1;
    17      230        1        0    4    1;
    18      230        1        0    4    1;
    19      230        1        0    3    1;
    20      230        1        0    3    1;
    21      230        1        0    4    1;
    22      230        1        0    4    1;
    23      230        1        0    3    1;
    24      230        1        0    4    1;
    ];

SW.con = [ ...
    13      100      230     1.02        0      0.8        0     1.05     0.95    0.951 1 1  1;
    13      100      230     1.02        0      0.8        0     1.05     0.95    0.951 1 0  1;
    13      100      230     1.02        0      0.8        0     1.05     0.95    0.951 1 0  1;
    ];

PV.con = [ ...
    1      100      138      0.1    1.035      0.1        0     1.05     0.95 1  1;
    1      100      138      0.1    1.035      0.1        0     1.05     0.95 1  1;
    1      100      138     0.76    1.035      0.3    -0.25     1.05     0.95 1  1;
    1      100      138     0.76    1.035      0.3    -0.25     1.05     0.95 1  1;
    2      100      138      0.1    1.035      0.1        0     1.05     0.95 1  1;
    2      100      138      0.1    1.035      0.1        0     1.05     0.95 1  1;
    2      100      138     0.76    1.035      0.3    -0.25     1.05     0.95 1  1;
    2      100      138     0.76    1.035      0.3    -0.25     1.05     0.95 1  1;
    7      100      138      0.8    1.025      0.6        0     1.05     0.95 1  1;
    7      100      138      0.8    1.025      0.6        0     1.05     0.95 1  1;
    7      100      138      0.8    1.025      0.6        0     1.05     0.95 1  1;
    14      100      230        0     0.98        2     -0.5     1.05     0.95 1  1;
    15      100      230     0.12    1.014     0.06        0     1.05     0.95 1  1;
    15      100      230     0.12    1.014     0.06        0     1.05     0.95 1  1;
    15      100      230     0.12    1.014     0.06        0     1.05     0.95 1  1;
    15      100      230     0.12    1.014     0.06        0     1.05     0.95 1  1;
    15      100      230     0.12    1.014     0.06        0     1.05     0.95 1  1;
    15      100      230     1.55    1.014      0.8     -0.5     1.05     0.95 1  1;
    16      100      230     1.55    1.017      0.8     -0.5     1.05     0.95 1  1;
    18      100      230        4     1.05        2     -0.5     1.05     0.95 1  1;
    21      100      230        4     1.05        2     -0.5     1.05     0.95 1  1;
    22      100      230      0.5     1.05     0.16     -0.1     1.05     0.95 1  1;
    22      100      230      0.5     1.05     0.16     -0.1     1.05     0.95 1  1;
    22      100      230      0.5     1.05     0.16     -0.1     1.05     0.95 1  1;
    22      100      230      0.5     1.05     0.16     -0.1     1.05     0.95 1  1;
    22      100      230      0.5     1.05     0.16     -0.1     1.05     0.95 1  1;
    22      100      230      0.5     1.05     0.16     -0.1     1.05     0.95 1  1;
    23      100      230     1.55     1.05      0.8     -0.5     1.05     0.95 1  1;
    23      100      230     1.55     1.05      0.8     -0.5     1.05     0.95 1  1;
    23      100      230      3.5     1.05      1.5    -0.25     1.05     0.95 1  1;
    ];

PQ.con = [ ...
    1 100      138     1.08     0.22     1.05     0.95 0 1;
    2 100      138     0.97      0.2     1.05     0.95 0 1;
    3 100      138      1.8     0.37     1.05     0.95 0 1;
    4 100      138     0.74     0.15     1.05     0.95 0 1;
    5 100      138     0.71     0.14     1.05     0.95 0 1;
    6 100      138     1.36     0.28     1.05     0.95 0 1;
    7 100      138     1.25     0.25     1.05     0.95 0 1;
    8 100      138     1.71     0.35     1.05     0.95 0 1;
    9 100      138     1.75     0.36     1.05     0.95 0 1;
    10 100      138     1.95      0.4     1.05     0.95 0 1;
    13 100      230     2.65     0.54     1.05     0.95 0 1;
    14 100      230     1.94     0.39     1.05     0.95 0 1;
    15 100      230     3.17     0.64     1.05     0.95 0 1;
    16 100      230        1      0.2     1.05     0.95 0 1;
    18 100      230     3.33     0.68     1.05     0.95 0 1;
    19 100      230     1.81     0.37     1.05     0.95 0 1;
    20 100      230     1.28     0.26     1.05     0.95 0 1;
    11 100      230        0        0     1.05     0.95 0 1;
    12 100      230        0        0     1.05     0.95 0 1;
    17 100      230        0        0     1.05     0.95 0 1;
    24 100      230        0        0     1.05     0.95 0 1;
    ];

Shunt.con = [ ...
    6 100      138 60        0       -1 1;
    ];

Line.con = [ ...
    1    2 100      138 60 0         0   0.0026   0.0139   0.4611        0        0     1.75      2.5        2  1;
    1    3 100      138 60 0         0   0.0546   0.2112   0.0572        0        0     1.75     2.08      2.2  1;
    1    5 100      138 60 0         0   0.0218   0.0845   0.0229        0        0     1.75     2.08      2.2  1;
    2    4 100      138 60 0         0   0.0328   0.1267   0.0343        0        0     1.75     2.08      2.2  1;
    2    6 100      138 60 0         0   0.0497    0.192    0.052        0        0     1.75     2.08      2.2  1;
    3    9 100      138 60 0         0   0.0308    0.119   0.0322        0        0     1.75     2.08      2.2  1;
    3   24 100      138 60 0       0.6   0.0023   0.0839        0     1.03        0        4      5.1        6  1;
    4    9 100      138 60 0         0   0.0268   0.1037   0.0281        0        0     1.75     2.08      2.2  1;
    5   10 100      138 60 0         0   0.0228   0.0883   0.0239        0        0     1.75     2.08      2.2  1;
    6   10 100      138 60 0         0   0.0139   0.0605    2.459        0        0     1.75     1.93        2  1;
    7    8 100      138 60 0         0   0.0159   0.0614   0.0166        0        0     1.75     2.08      2.2  1;
    8    9 100      138 60 0         0   0.0427   0.1651   0.0447        0        0     1.75     2.08      2.2  1;
    8   10 100      138 60 0         0   0.0427   0.1651   0.0447        0        0     1.75     2.08      2.2  1;
    9   11 100      138 60 0       0.6   0.0023   0.0839        0     1.03        0        4      5.1        6  1;
    9   12 100      138 60 0       0.6   0.0023   0.0839        0     1.03        0        4      5.1        6  1;
    10   11 100      138 60 0       0.6   0.0023   0.0839        0     1.02        0        4      5.1        6  1;
    10   12 100      138 60 0       0.6   0.0023   0.0839        0     1.02        0        4      5.1        6  1;
    11   13 100      230 60 0         0   0.0061   0.0476   0.0999        0        0        5        6     6.25  1;
    11   14 100      230 60 0         0   0.0054   0.0418   0.0879        0        0        5     6.25     6.25  1;
    12   13 100      230 60 0         0   0.0061   0.0476   0.0999        0        0        5     6.25     6.25  1;
    12   23 100      230 60 0         0   0.0124   0.0966    0.203        0        0        5     6.25     6.25  1;
    13   23 100      230 60 0         0   0.0111   0.0865   0.1818        0        0        5     6.25     6.25  1;
    14   16 100      230 60 0         0    0.005   0.0389   0.0818        0        0        5     6.25     6.25  1;
    15   16 100      230 60 0         0   0.0022   0.0173   0.0364        0        0        5        6     6.25  1;
    15   21 100      230 60 0         0   0.0063    0.049    0.103        0        0        5        6     6.25  1;
    15   21 100      230 60 0         0   0.0063    0.049    0.103        0        0        5        6     6.25  1;
    15   24 100      230 60 0         0   0.0067   0.0519   0.1091        0        0        5        6     6.25  1;
    16   17 100      230 60 0         0   0.0033   0.0259   0.0545        0        0        5        6     6.25  1;
    16   19 100      230 60 0         0    0.003   0.0231   0.0485        0        0        5        6     6.25  1;
    17   18 100      230 60 0         0   0.0018   0.0144   0.0303        0        0        5        6     6.25  1;
    17   22 100      230 60 0         0   0.0135   0.1053   0.2212        0        0        5        6     6.25  1;
    18   21 100      230 60 0         0   0.0033   0.0259   0.0545        0        0        5        6     6.25  1;
    18   21 100      230 60 0         0   0.0033   0.0259   0.0545        0        0        5        6     6.25  1;
    19   20 100      230 60 0         0   0.0051   0.0396   0.0833        0        0        5        6     6.25  1;
    19   20 100      230 60 0         0   0.0051   0.0396   0.0833        0        0        5        6     6.25  1;
    20   23 100      230 60 0         0   0.0028   0.0216   0.0455        0        0        5        6     6.25  1;
    20   23 100      230 60 0         0   0.0028   0.0216   0.0455        0        0        5        6     6.25  1;
    21   22 100      230 60 0         0   0.0087   0.0678   0.1424        0        0        5        6     6.25  1;
    ];

Supply.con = [ ...
    1       100        0      0.2     0.16        0    400.7      130        0        0        0        0  1 0 1;
    1       100        0      0.2     0.16        0    400.7      130        0        0        0        0  1 0 1;
    1       100        0     0.76    0.152        0    212.3    16.08  0.01414        0        0        0  1 0 1;
    1       100        0     0.76    0.152        0    212.3    16.08  0.01414        0        0        0  1 0 1;
    2       100        0      0.2     0.16        0    400.7      130        0        0        0        0  1 0 1;
    2       100        0      0.2     0.16        0    400.7      130        0        0        0        0  1 0 1;
    2       100        0     0.76    0.152        0    212.3    16.08  0.01414        0        0        0  1 0 1;
    2       100        0     0.76    0.152        0    212.3    16.08  0.01414        0        0        0  1 0 1;
    7       100        0        1     0.25        0    781.5    43.66  0.05267        0        0        0  1 0 1;
    7       100        0        1     0.25        0    781.5    43.66  0.05267        0        0        0  1 0 1;
    7       100        0        1     0.25        0    781.5    43.66  0.05267        0        0        0  1 0 1;
    13       100        0     1.97     0.69        0    832.8    48.58  0.00717        0        0        0  1 0 1;
    13       100        0     1.97     0.69        0    832.8    48.58  0.00717        0        0        0  1 0 1;
    13       100        0     1.97     0.69        0    832.8    48.58  0.00717        0        0        0  1 0 1;
    14       100        0        0        0        0        0        0        0        0        0        0  1 0 1;
    15       100        0     0.12    0.024        0    86.39    56.56   0.3284        0        0        0  1 0 1;
    15       100        0     0.12    0.024        0    86.39    56.56   0.3284        0        0        0  1 0 1;
    15       100        0     0.12    0.024        0    86.39    56.56   0.3284        0        0        0  1 0 1;
    15       100        0     0.12    0.024        0    86.39    56.56   0.3284        0        0        0  1 0 1;
    15       100        0     0.12    0.024        0    86.39    56.56   0.3284        0        0        0  1 0 1;
    15       100        0     1.55    0.543        0    382.2    12.39 0.008342        0        0        0  1 0 1;
    16       100        0     1.55    0.543        0    382.2    12.39 0.008342        0        0        0  1 0 1;
    18       100        0        4        1        0    395.4    4.423 0.000213        0        0        0  1 0 1;
    21       100        0        4        1        0    395.4    4.423 0.000213        0        0        0  1 0 1;
    22       100        0      0.5      0.1        0    0.001    0.001        0        0        0        0  1 0 1;
    22       100        0      0.5      0.1        0    0.001    0.001        0        0        0        0  1 0 1;
    22       100        0      0.5      0.1        0    0.001    0.001        0        0        0        0  1 0 1;
    22       100        0      0.5      0.1        0    0.001    0.001        0        0        0        0  1 0 1;
    22       100        0      0.5      0.1        0    0.001    0.001        0        0        0        0  1 0 1;
    22       100        0      0.5      0.1        0    0.001    0.001        0        0        0        0  1 0 1;
    23       100        0     1.55    0.543        0    382.2    12.39 0.008342        0        0        0  1 0 1;
    23       100        0     1.55    0.543        0    382.2    12.39 0.008342        0        0        0  1 0 1;
    23       100        0      3.5      1.4        0    665.1    11.85 0.004895        0        0        0  1 0 1;
    ];   
    
    Bus.names = {...
    'Bus 1'; 'Bus 2'; 'Bus 3'; 'Bus 4'; 'Bus 5';
    'Bus 6'; 'Bus 7'; 'Bus 8'; 'Bus 9'; 'Bus 10';
    'Bus 11'; 'Bus 12'; 'Bus 13'; 'Bus 14'; 'Bus 15';
    'Bus 16'; 'Bus 17'; 'Bus 18'; 'Bus 19'; 'Bus 20';
    'Bus 21'; 'Bus 22'; 'Bus 23'; 'Bus 24'};
    
